Version 4.1
SHEET 1 1796 832
WIRE 400 -112 336 -112
WIRE 480 -112 400 -112
WIRE 336 -64 336 -112
WIRE 1104 112 944 112
WIRE 1168 112 1104 112
WIRE 112 144 16 144
WIRE 336 144 336 16
WIRE 336 144 192 144
WIRE 512 144 336 144
WIRE 720 160 576 160
WIRE 880 160 800 160
WIRE 512 176 464 176
WIRE 1168 224 1168 192
WIRE 544 240 544 192
WIRE 944 240 944 208
WIRE 16 256 16 144
WIRE 464 320 464 176
WIRE 944 320 464 320
WIRE 336 352 336 144
WIRE 464 352 464 320
WIRE 944 352 944 320
WIRE 336 480 336 432
WIRE 464 480 464 432
WIRE 464 480 336 480
WIRE 1120 480 464 480
WIRE 1168 480 1168 304
WIRE 1168 480 1120 480
FLAG 16 336 0
FLAG 544 128 0
FLAG 1104 112 loop+
FLAG 1120 480 loop-
FLAG 944 352 0
FLAG 544 240 Vb
FLAG 480 -32 0
FLAG 400 -112 Vb
SYMBOL voltage 16 240 R0
WINDOW 123 0 0 Left 0
WINDOW 39 0 0 Left 0
SYMATTR InstName Va
SYMATTR Value 0.2
SYMBOL res 208 128 R90
WINDOW 0 0 56 VBottom 2
WINDOW 3 32 56 VTop 2
SYMATTR InstName Ra
SYMATTR Value 966
SYMBOL res 320 -80 R0
SYMATTR InstName Rb
SYMATTR Value 7161
SYMBOL res 320 336 R0
SYMATTR InstName Rc
SYMATTR Value 39.9
SYMBOL OpAmps\\ADA4622 544 224 M180
SYMATTR InstName U1
SYMBOL res 816 144 R90
WINDOW 0 0 56 VBottom 2
WINDOW 3 32 56 VTop 2
SYMATTR InstName R1
SYMATTR Value 1000
SYMBOL res 448 336 R0
SYMATTR InstName Rd
SYMATTR Value 10
SYMBOL voltage 1168 208 R0
SYMATTR InstName V2
SYMATTR Value 36
SYMBOL Contrib\\Toshiba\\bjt\\2SC2873 880 112 R0
SYMATTR InstName U3
SYMBOL voltage 480 -128 R0
SYMATTR InstName V1
SYMATTR Value 5
SYMBOL res 928 224 R0
SYMATTR InstName Re
SYMATTR Value 50
SYMBOL res 1152 96 R0
SYMATTR InstName Rload
SYMATTR Value 250
TEXT 256 688 Left 2 !.dc Va 0.1 3.2 0.01\n.options cshunt=1e-15
